<nodes>
    <node id="junction" x="0.0" y="0.0" type="traffic_light" radius="15"/>
    <node id="north" x="0.0" y="300.0" type="dead_end"/>
    <node id="south" x="0.0" y="-300.0" type="dead_end"/>
    <node id="east" x="300.0" y="0.0" type="dead_end"/>
    <node id="west" x="-300.0" y="0.0" type="dead_end"/>
</nodes>