<?xml version="1.0" encoding="UTF-8"?>

<!-- generated on 2026-05-03T14:13:34.709161+00:00 by Eclipse SUMO netconvert 1.26.0
<netconvertConfiguration xmlns:xsi="http://www.w3.org/2001/XMLSchema-instance" xsi:noNamespaceSchemaLocation="http://sumo.dlr.de/xsd/netconvertConfiguration.xsd">

    <input>
        <node-files value="nodes.nod.xml"/>
        <edge-files value="edges.edg.xml"/>
    </input>

    <output>
        <output-file value="single_junction.net.xml"/>
    </output>

    <tls_building>
        <tls.cycle.time value="90"/>
        <tls.yellow.time value="3"/>
    </tls_building>

</netconvertConfiguration>
-->

<net version="1.20" junctionCornerDetail="5" limitTurnSpeed="5.50" xmlns:xsi="http://www.w3.org/2001/XMLSchema-instance" xsi:noNamespaceSchemaLocation="http://sumo.dlr.de/xsd/net_file.xsd">

    <location netOffset="300.00,300.00" convBoundary="0.00,0.00,600.00,600.00" origBoundary="-300.00,-300.00,300.00,300.00" projParameter="!"/>

    <edge id=":east_0" function="internal">
        <lane id=":east_0_0" index="0" speed="3.65" length="4.67" shape="600.00,298.40 601.20,299.20 601.60,300.00 601.20,300.80 600.00,301.60"/>
    </edge>
    <edge id=":junction_0" function="internal">
        <lane id=":junction_0_0" index="0" speed="10.81" length="26.77" shape="295.20,321.40 294.16,314.14 291.05,308.95 285.86,305.84 278.60,304.80"/>
    </edge>
    <edge id=":junction_1" function="internal">
        <lane id=":junction_1_0" index="0" speed="13.90" length="42.80" shape="295.20,321.40 295.20,278.60"/>
        <lane id=":junction_1_1" index="1" speed="13.90" length="42.80" shape="298.40,321.40 298.40,278.60"/>
    </edge>
    <edge id=":junction_3" function="internal">
        <lane id=":junction_3_0" index="0" speed="12.66" length="5.01" shape="298.40,321.40 299.11,316.44"/>
    </edge>
    <edge id=":junction_4" function="internal">
        <lane id=":junction_4_0" index="0" speed="3.65" length="1.44" shape="298.40,321.40 299.20,320.20"/>
    </edge>
    <edge id=":junction_20" function="internal">
        <lane id=":junction_20_0" index="0" speed="12.66" length="32.08" shape="299.11,316.44 299.84,311.34 304.15,304.15 311.34,299.84 321.40,298.40"/>
    </edge>
    <edge id=":junction_21" function="internal">
        <lane id=":junction_21_0" index="0" speed="3.65" length="3.23" shape="299.20,320.20 300.00,319.80 300.80,320.20 301.60,321.40"/>
    </edge>
    <edge id=":junction_5" function="internal">
        <lane id=":junction_5_0" index="0" speed="10.81" length="26.77" shape="321.40,304.80 314.14,305.84 308.95,308.95 305.84,314.14 304.80,321.40"/>
    </edge>
    <edge id=":junction_6" function="internal">
        <lane id=":junction_6_0" index="0" speed="13.90" length="42.80" shape="321.40,304.80 278.60,304.80"/>
        <lane id=":junction_6_1" index="1" speed="13.90" length="42.80" shape="321.40,301.60 278.60,301.60"/>
    </edge>
    <edge id=":junction_8" function="internal">
        <lane id=":junction_8_0" index="0" speed="12.66" length="5.01" shape="321.40,301.60 316.44,300.89"/>
    </edge>
    <edge id=":junction_9" function="internal">
        <lane id=":junction_9_0" index="0" speed="3.65" length="1.44" shape="321.40,301.60 320.20,300.80"/>
    </edge>
    <edge id=":junction_22" function="internal">
        <lane id=":junction_22_0" index="0" speed="12.66" length="32.08" shape="316.44,300.89 311.34,300.16 304.15,295.85 299.84,288.66 298.40,278.60"/>
    </edge>
    <edge id=":junction_23" function="internal">
        <lane id=":junction_23_0" index="0" speed="3.65" length="3.23" shape="320.20,300.80 319.80,300.00 320.20,299.20 321.40,298.40"/>
    </edge>
    <edge id=":junction_10" function="internal">
        <lane id=":junction_10_0" index="0" speed="10.81" length="26.77" shape="304.80,278.60 305.84,285.86 308.95,291.05 314.14,294.16 321.40,295.20"/>
    </edge>
    <edge id=":junction_11" function="internal">
        <lane id=":junction_11_0" index="0" speed="13.90" length="42.80" shape="304.80,278.60 304.80,321.40"/>
        <lane id=":junction_11_1" index="1" speed="13.90" length="42.80" shape="301.60,278.60 301.60,321.40"/>
    </edge>
    <edge id=":junction_13" function="internal">
        <lane id=":junction_13_0" index="0" speed="12.66" length="5.01" shape="301.60,278.60 300.89,283.56"/>
    </edge>
    <edge id=":junction_14" function="internal">
        <lane id=":junction_14_0" index="0" speed="3.65" length="1.44" shape="301.60,278.60 300.80,279.80"/>
    </edge>
    <edge id=":junction_24" function="internal">
        <lane id=":junction_24_0" index="0" speed="12.66" length="32.08" shape="300.89,283.56 300.16,288.66 295.85,295.85 288.66,300.16 278.60,301.60"/>
    </edge>
    <edge id=":junction_25" function="internal">
        <lane id=":junction_25_0" index="0" speed="3.65" length="3.23" shape="300.80,279.80 300.00,280.20 299.20,279.80 298.40,278.60"/>
    </edge>
    <edge id=":junction_15" function="internal">
        <lane id=":junction_15_0" index="0" speed="10.81" length="26.77" shape="278.60,295.20 285.86,294.16 291.05,291.05 294.16,285.86 295.20,278.60"/>
    </edge>
    <edge id=":junction_16" function="internal">
        <lane id=":junction_16_0" index="0" speed="13.90" length="42.80" shape="278.60,295.20 321.40,295.20"/>
        <lane id=":junction_16_1" index="1" speed="13.90" length="42.80" shape="278.60,298.40 321.40,298.40"/>
    </edge>
    <edge id=":junction_18" function="internal">
        <lane id=":junction_18_0" index="0" speed="12.66" length="5.01" shape="278.60,298.40 283.56,299.11"/>
    </edge>
    <edge id=":junction_19" function="internal">
        <lane id=":junction_19_0" index="0" speed="3.65" length="1.44" shape="278.60,298.40 279.80,299.20"/>
    </edge>
    <edge id=":junction_26" function="internal">
        <lane id=":junction_26_0" index="0" speed="12.66" length="32.08" shape="283.56,299.11 288.66,299.84 295.85,304.15 300.16,311.34 301.60,321.40"/>
    </edge>
    <edge id=":junction_27" function="internal">
        <lane id=":junction_27_0" index="0" speed="3.65" length="3.23" shape="279.80,299.20 280.20,300.00 279.80,300.80 278.60,301.60"/>
    </edge>
    <edge id=":north_0" function="internal">
        <lane id=":north_0_0" index="0" speed="3.65" length="4.67" shape="301.60,600.00 300.80,601.20 300.00,601.60 299.20,601.20 298.40,600.00"/>
    </edge>
    <edge id=":south_0" function="internal">
        <lane id=":south_0_0" index="0" speed="3.65" length="4.67" shape="298.40,0.00 299.20,-1.20 300.00,-1.60 300.80,-1.20 301.60,0.00"/>
    </edge>
    <edge id=":west_0" function="internal">
        <lane id=":west_0_0" index="0" speed="3.65" length="4.67" shape="0.00,301.60 -1.20,300.80 -1.60,300.00 -1.20,299.20 0.00,298.40"/>
    </edge>

    <edge id="east_in" from="east" to="junction" priority="-1">
        <lane id="east_in_0" index="0" speed="13.90" length="278.60" shape="600.00,304.80 321.40,304.80"/>
        <lane id="east_in_1" index="1" speed="13.90" length="278.60" shape="600.00,301.60 321.40,301.60"/>
    </edge>
    <edge id="east_out" from="junction" to="east" priority="-1">
        <lane id="east_out_0" index="0" speed="13.90" length="278.60" shape="321.40,295.20 600.00,295.20"/>
        <lane id="east_out_1" index="1" speed="13.90" length="278.60" shape="321.40,298.40 600.00,298.40"/>
    </edge>
    <edge id="north_in" from="north" to="junction" priority="-1">
        <lane id="north_in_0" index="0" speed="13.90" length="278.60" shape="295.20,600.00 295.20,321.40"/>
        <lane id="north_in_1" index="1" speed="13.90" length="278.60" shape="298.40,600.00 298.40,321.40"/>
    </edge>
    <edge id="north_out" from="junction" to="north" priority="-1">
        <lane id="north_out_0" index="0" speed="13.90" length="278.60" shape="304.80,321.40 304.80,600.00"/>
        <lane id="north_out_1" index="1" speed="13.90" length="278.60" shape="301.60,321.40 301.60,600.00"/>
    </edge>
    <edge id="south_in" from="south" to="junction" priority="-1">
        <lane id="south_in_0" index="0" speed="13.90" length="278.60" shape="304.80,0.00 304.80,278.60"/>
        <lane id="south_in_1" index="1" speed="13.90" length="278.60" shape="301.60,0.00 301.60,278.60"/>
    </edge>
    <edge id="south_out" from="junction" to="south" priority="-1">
        <lane id="south_out_0" index="0" speed="13.90" length="278.60" shape="295.20,278.60 295.20,0.00"/>
        <lane id="south_out_1" index="1" speed="13.90" length="278.60" shape="298.40,278.60 298.40,0.00"/>
    </edge>
    <edge id="west_in" from="west" to="junction" priority="-1">
        <lane id="west_in_0" index="0" speed="13.90" length="278.60" shape="0.00,295.20 278.60,295.20"/>
        <lane id="west_in_1" index="1" speed="13.90" length="278.60" shape="0.00,298.40 278.60,298.40"/>
    </edge>
    <edge id="west_out" from="junction" to="west" priority="-1">
        <lane id="west_out_0" index="0" speed="13.90" length="278.60" shape="278.60,304.80 0.00,304.80"/>
        <lane id="west_out_1" index="1" speed="13.90" length="278.60" shape="278.60,301.60 0.00,301.60"/>
    </edge>

    <tlLogic id="junction" type="static" programID="0" offset="0">
        <phase duration="41" state="GGGggrrrrrGGGggrrrrr"/>
        <phase duration="3"  state="yyyyyrrrrryyyyyrrrrr"/>
        <phase duration="1"  state="rrrrrrrrrrrrrrrrrrrr"/>
        <phase duration="41" state="rrrrrGGGggrrrrrGGGgg"/>
        <phase duration="3"  state="rrrrryyyyyrrrrryyyyy"/>
        <phase duration="1"  state="rrrrrrrrrrrrrrrrrrrr"/>
    </tlLogic>

    <junction id="east" type="priority" x="600.00" y="300.00" incLanes="east_out_0 east_out_1" intLanes=":east_0_0" shape="600.00,300.00 600.00,293.60 600.00,300.00">
        <request index="0" response="0" foes="0" cont="0"/>
    </junction>
    <junction id="junction" type="traffic_light" x="300.00" y="300.00" incLanes="north_in_0 north_in_1 east_in_0 east_in_1 south_in_0 south_in_1 west_in_0 west_in_1" intLanes=":junction_0_0 :junction_1_0 :junction_1_1 :junction_20_0 :junction_21_0 :junction_5_0 :junction_6_0 :junction_6_1 :junction_22_0 :junction_23_0 :junction_10_0 :junction_11_0 :junction_11_1 :junction_24_0 :junction_25_0 :junction_15_0 :junction_16_0 :junction_16_1 :junction_26_0 :junction_27_0" shape="293.60,321.40 306.40,321.40 306.82,316.82 308.07,313.07 310.15,310.15 313.07,308.07 316.82,306.82 321.40,306.40 321.40,293.60 316.82,293.18 313.07,291.93 310.15,289.85 308.07,286.93 306.82,283.18 306.40,278.60 293.60,278.60 293.18,283.18 291.93,286.93 289.85,289.85 286.93,291.93 283.18,293.18 278.60,293.60 278.60,306.40 283.18,306.82 286.93,308.07 289.85,310.15 291.93,313.07 293.18,316.82" radius="15.00">
        <request index="0"  response="00000000000000000000" foes="00000000000011000000" cont="0"/>
        <request index="1"  response="01000000000000000000" foes="01111110000111000000" cont="0"/>
        <request index="2"  response="01000000000100000000" foes="01111110000111000000" cont="0"/>
        <request index="3"  response="01000001100100000000" foes="01110001101111000000" cont="1"/>
        <request index="4"  response="01000001100000000000" foes="01000001100000000000" cont="1"/>
        <request index="5"  response="00000001100000000000" foes="00000001100000000000" cont="0"/>
        <request index="6"  response="00000011100000001111" foes="11000011100000001111" cont="0"/>
        <request index="7"  response="00000011100000001111" foes="11000011100000001111" cont="0"/>
        <request index="8"  response="00110011100000001110" foes="00110111100000001110" cont="1"/>
        <request index="9"  response="00110000000000001000" foes="00110000000000001000" cont="1"/>
        <request index="10" response="00000000000000000000" foes="00110000000000000000" cont="0"/>
        <request index="11" response="00000000000100000000" foes="01110000000111111000" cont="0"/>
        <request index="12" response="01000000000100000000" foes="01110000000111111000" cont="0"/>
        <request index="13" response="01000000000100000110" foes="11110000000111000110" cont="1"/>
        <request index="14" response="00000000000100000110" foes="00000000000100000110" cont="1"/>
        <request index="15" response="00000000000000000110" foes="00000000000000000110" cont="0"/>
        <request index="16" response="00000011110000001110" foes="00000011111100001110" cont="0"/>
        <request index="17" response="00000011110000001110" foes="00000011111100001110" cont="0"/>
        <request index="18" response="00000011100011001110" foes="00000011100011011110" cont="1"/>
        <request index="19" response="00000010000011000000" foes="00000010000011000000" cont="1"/>
    </junction>
    <junction id="north" type="priority" x="300.00" y="600.00" incLanes="north_out_0 north_out_1" intLanes=":north_0_0" shape="300.00,600.00 306.40,600.00 300.00,600.00">
        <request index="0" response="0" foes="0" cont="0"/>
    </junction>
    <junction id="south" type="priority" x="300.00" y="0.00" incLanes="south_out_0 south_out_1" intLanes=":south_0_0" shape="300.00,0.00 293.60,0.00 300.00,0.00">
        <request index="0" response="0" foes="0" cont="0"/>
    </junction>
    <junction id="west" type="priority" x="0.00" y="300.00" incLanes="west_out_0 west_out_1" intLanes=":west_0_0" shape="0.00,300.00 0.00,306.40 0.00,300.00">
        <request index="0" response="0" foes="0" cont="0"/>
    </junction>

    <junction id=":junction_20_0" type="internal" x="299.11" y="316.44" incLanes=":junction_3_0 south_in_0 south_in_1" intLanes=":junction_6_0 :junction_6_1 :junction_8_0 :junction_9_0 :junction_10_0 :junction_11_0 :junction_11_1 :junction_16_0 :junction_16_1 :junction_18_0"/>
    <junction id=":junction_21_0" type="internal" x="299.20" y="320.20" incLanes=":junction_4_0 east_in_0 south_in_0 south_in_1 west_in_1" intLanes=":junction_5_0 :junction_11_0 :junction_11_1 :junction_18_0"/>
    <junction id=":junction_22_0" type="internal" x="316.44" y="300.89" incLanes=":junction_8_0 west_in_0 west_in_1" intLanes=":junction_1_0 :junction_1_1 :junction_3_0 :junction_11_0 :junction_11_1 :junction_13_0 :junction_14_0 :junction_15_0 :junction_16_0 :junction_16_1"/>
    <junction id=":junction_23_0" type="internal" x="320.20" y="300.80" incLanes=":junction_9_0 north_in_1 south_in_0 west_in_0 west_in_1" intLanes=":junction_3_0 :junction_10_0 :junction_16_0 :junction_16_1"/>
    <junction id=":junction_24_0" type="internal" x="300.89" y="283.56" incLanes=":junction_13_0 north_in_0 north_in_1" intLanes=":junction_0_0 :junction_1_0 :junction_1_1 :junction_6_0 :junction_6_1 :junction_8_0 :junction_16_0 :junction_16_1 :junction_18_0 :junction_19_0"/>
    <junction id=":junction_25_0" type="internal" x="300.80" y="279.80" incLanes=":junction_14_0 east_in_1 north_in_0 north_in_1 west_in_0" intLanes=":junction_1_0 :junction_1_1 :junction_8_0 :junction_15_0"/>
    <junction id=":junction_26_0" type="internal" x="283.56" y="299.11" incLanes=":junction_18_0 east_in_0 east_in_1" intLanes=":junction_1_0 :junction_1_1 :junction_3_0 :junction_4_0 :junction_5_0 :junction_6_0 :junction_6_1 :junction_11_0 :junction_11_1 :junction_13_0"/>
    <junction id=":junction_27_0" type="internal" x="279.80" y="299.20" incLanes=":junction_19_0 east_in_0 east_in_1 north_in_0 south_in_1" intLanes=":junction_0_0 :junction_6_0 :junction_6_1 :junction_13_0"/>

    <connection from="east_in" to="north_out" fromLane="0" toLane="0" via=":junction_5_0" tl="junction" linkIndex="5" dir="r" state="o"/>
    <connection from="east_in" to="west_out" fromLane="0" toLane="0" via=":junction_6_0" tl="junction" linkIndex="6" dir="s" state="o"/>
    <connection from="east_in" to="west_out" fromLane="1" toLane="1" via=":junction_6_1" tl="junction" linkIndex="7" dir="s" state="o"/>
    <connection from="east_in" to="south_out" fromLane="1" toLane="1" via=":junction_8_0" tl="junction" linkIndex="8" dir="l" state="o"/>
    <connection from="east_in" to="east_out" fromLane="1" toLane="1" via=":junction_9_0" tl="junction" linkIndex="9" dir="t" state="o"/>
    <connection from="east_out" to="east_in" fromLane="1" toLane="1" via=":east_0_0" dir="t" state="M"/>
    <connection from="north_in" to="west_out" fromLane="0" toLane="0" via=":junction_0_0" tl="junction" linkIndex="0" dir="r" state="O"/>
    <connection from="north_in" to="south_out" fromLane="0" toLane="0" via=":junction_1_0" tl="junction" linkIndex="1" dir="s" state="O"/>
    <connection from="north_in" to="south_out" fromLane="1" toLane="1" via=":junction_1_1" tl="junction" linkIndex="2" dir="s" state="O"/>
    <connection from="north_in" to="east_out" fromLane="1" toLane="1" via=":junction_3_0" tl="junction" linkIndex="3" dir="l" state="o"/>
    <connection from="north_in" to="north_out" fromLane="1" toLane="1" via=":junction_4_0" tl="junction" linkIndex="4" dir="t" state="o"/>
    <connection from="north_out" to="north_in" fromLane="1" toLane="1" via=":north_0_0" dir="t" state="M"/>
    <connection from="south_in" to="east_out" fromLane="0" toLane="0" via=":junction_10_0" tl="junction" linkIndex="10" dir="r" state="O"/>
    <connection from="south_in" to="north_out" fromLane="0" toLane="0" via=":junction_11_0" tl="junction" linkIndex="11" dir="s" state="O"/>
    <connection from="south_in" to="north_out" fromLane="1" toLane="1" via=":junction_11_1" tl="junction" linkIndex="12" dir="s" state="O"/>
    <connection from="south_in" to="west_out" fromLane="1" toLane="1" via=":junction_13_0" tl="junction" linkIndex="13" dir="l" state="o"/>
    <connection from="south_in" to="south_out" fromLane="1" toLane="1" via=":junction_14_0" tl="junction" linkIndex="14" dir="t" state="o"/>
    <connection from="south_out" to="south_in" fromLane="1" toLane="1" via=":south_0_0" dir="t" state="M"/>
    <connection from="west_in" to="south_out" fromLane="0" toLane="0" via=":junction_15_0" tl="junction" linkIndex="15" dir="r" state="o"/>
    <connection from="west_in" to="east_out" fromLane="0" toLane="0" via=":junction_16_0" tl="junction" linkIndex="16" dir="s" state="o"/>
    <connection from="west_in" to="east_out" fromLane="1" toLane="1" via=":junction_16_1" tl="junction" linkIndex="17" dir="s" state="o"/>
    <connection from="west_in" to="north_out" fromLane="1" toLane="1" via=":junction_18_0" tl="junction" linkIndex="18" dir="l" state="o"/>
    <connection from="west_in" to="west_out" fromLane="1" toLane="1" via=":junction_19_0" tl="junction" linkIndex="19" dir="t" state="o"/>
    <connection from="west_out" to="west_in" fromLane="1" toLane="1" via=":west_0_0" dir="t" state="M"/>

    <connection from=":east_0" to="east_in" fromLane="0" toLane="1" dir="t" state="M"/>
    <connection from=":junction_0" to="west_out" fromLane="0" toLane="0" dir="r" state="M"/>
    <connection from=":junction_1" to="south_out" fromLane="0" toLane="0" dir="s" state="M"/>
    <connection from=":junction_1" to="south_out" fromLane="1" toLane="1" dir="s" state="M"/>
    <connection from=":junction_3" to="east_out" fromLane="0" toLane="1" via=":junction_20_0" dir="l" state="m"/>
    <connection from=":junction_20" to="east_out" fromLane="0" toLane="1" dir="l" state="M"/>
    <connection from=":junction_4" to="north_out" fromLane="0" toLane="1" via=":junction_21_0" dir="t" state="m"/>
    <connection from=":junction_21" to="north_out" fromLane="0" toLane="1" dir="t" state="M"/>
    <connection from=":junction_5" to="north_out" fromLane="0" toLane="0" dir="r" state="M"/>
    <connection from=":junction_6" to="west_out" fromLane="0" toLane="0" dir="s" state="M"/>
    <connection from=":junction_6" to="west_out" fromLane="1" toLane="1" dir="s" state="M"/>
    <connection from=":junction_8" to="south_out" fromLane="0" toLane="1" via=":junction_22_0" dir="l" state="m"/>
    <connection from=":junction_22" to="south_out" fromLane="0" toLane="1" dir="l" state="M"/>
    <connection from=":junction_9" to="east_out" fromLane="0" toLane="1" via=":junction_23_0" dir="t" state="m"/>
    <connection from=":junction_23" to="east_out" fromLane="0" toLane="1" dir="t" state="M"/>
    <connection from=":junction_10" to="east_out" fromLane="0" toLane="0" dir="r" state="M"/>
    <connection from=":junction_11" to="north_out" fromLane="0" toLane="0" dir="s" state="M"/>
    <connection from=":junction_11" to="north_out" fromLane="1" toLane="1" dir="s" state="M"/>
    <connection from=":junction_13" to="west_out" fromLane="0" toLane="1" via=":junction_24_0" dir="l" state="m"/>
    <connection from=":junction_24" to="west_out" fromLane="0" toLane="1" dir="l" state="M"/>
    <connection from=":junction_14" to="south_out" fromLane="0" toLane="1" via=":junction_25_0" dir="t" state="m"/>
    <connection from=":junction_25" to="south_out" fromLane="0" toLane="1" dir="t" state="M"/>
    <connection from=":junction_15" to="south_out" fromLane="0" toLane="0" dir="r" state="M"/>
    <connection from=":junction_16" to="east_out" fromLane="0" toLane="0" dir="s" state="M"/>
    <connection from=":junction_16" to="east_out" fromLane="1" toLane="1" dir="s" state="M"/>
    <connection from=":junction_18" to="north_out" fromLane="0" toLane="1" via=":junction_26_0" dir="l" state="m"/>
    <connection from=":junction_26" to="north_out" fromLane="0" toLane="1" dir="l" state="M"/>
    <connection from=":junction_19" to="west_out" fromLane="0" toLane="1" via=":junction_27_0" dir="t" state="m"/>
    <connection from=":junction_27" to="west_out" fromLane="0" toLane="1" dir="t" state="M"/>
    <connection from=":north_0" to="north_in" fromLane="0" toLane="1" dir="t" state="M"/>
    <connection from=":south_0" to="south_in" fromLane="0" toLane="1" dir="t" state="M"/>
    <connection from=":west_0" to="west_in" fromLane="0" toLane="1" dir="t" state="M"/>

</net>
