<?xml version="1.0" encoding="UTF-8"?>

<!-- generated on 2026-05-05T10:55:19.901295+00:00 by Eclipse SUMO netconvert 1.26.0
<netconvertConfiguration xmlns:xsi="http://www.w3.org/2001/XMLSchema-instance" xsi:noNamespaceSchemaLocation="http://sumo.dlr.de/xsd/netconvertConfiguration.xsd">

    <input>
        <node-files value="nodes.nod.xml"/>
        <edge-files value="edges.edg.xml"/>
    </input>

    <output>
        <output-file value="single_junction.net.xml"/>
    </output>

    <processing>
        <lefthand value="true"/>
    </processing>

</netconvertConfiguration>
-->

<net version="1.20" junctionCornerDetail="5" lefthand="true" limitTurnSpeed="5.50" xmlns:xsi="http://www.w3.org/2001/XMLSchema-instance" xsi:noNamespaceSchemaLocation="http://sumo.dlr.de/xsd/net_file.xsd">

    <location netOffset="300.00,300.00" convBoundary="0.00,-0.00,600.00,600.00" origBoundary="-300.00,-300.00,300.00,300.00" projParameter="!"/>

    <edge id=":east_0" function="internal">
        <lane id=":east_0_0" index="0" speed="3.65" length="4.67" shape="600.00,301.60 601.20,300.80 601.60,300.00 601.20,299.20 600.00,298.40"/>
    </edge>
    <edge id=":junction_0" function="internal">
        <lane id=":junction_0_0" index="0" speed="10.81" length="26.77" shape="292.00,275.40 290.96,282.66 287.85,287.85 282.66,290.96 275.40,292.00"/>
    </edge>
    <edge id=":junction_1" function="internal">
        <lane id=":junction_1_0" index="0" speed="13.90" length="49.20" shape="292.00,275.40 292.00,324.60"/>
        <lane id=":junction_1_1" index="1" speed="13.90" length="49.20" shape="295.20,275.40 295.20,324.60"/>
        <lane id=":junction_1_2" index="2" speed="13.90" length="49.20" shape="298.40,275.40 298.40,324.60"/>
    </edge>
    <edge id=":junction_4" function="internal">
        <lane id=":junction_4_0" index="0" speed="13.49" length="5.01" shape="298.40,275.40 299.11,280.36"/>
    </edge>
    <edge id=":junction_5" function="internal">
        <lane id=":junction_5_0" index="0" speed="3.65" length="1.44" shape="298.40,275.40 299.20,276.60"/>
    </edge>
    <edge id=":junction_24" function="internal">
        <lane id=":junction_24_0" index="0" speed="13.49" length="37.24" shape="299.11,280.36 300.04,286.86 304.95,295.05 313.14,299.96 324.60,301.60"/>
    </edge>
    <edge id=":junction_25" function="internal">
        <lane id=":junction_25_0" index="0" speed="3.65" length="3.23" shape="299.20,276.60 300.00,277.00 300.80,276.60 301.60,275.40"/>
    </edge>
    <edge id=":junction_6" function="internal">
        <lane id=":junction_6_0" index="0" speed="10.81" length="26.77" shape="324.60,292.00 317.34,290.96 312.15,287.85 309.04,282.66 308.00,275.40"/>
    </edge>
    <edge id=":junction_7" function="internal">
        <lane id=":junction_7_0" index="0" speed="13.90" length="49.20" shape="324.60,292.00 275.40,292.00"/>
        <lane id=":junction_7_1" index="1" speed="13.90" length="49.20" shape="324.60,295.20 275.40,295.20"/>
        <lane id=":junction_7_2" index="2" speed="13.90" length="49.20" shape="324.60,298.40 275.40,298.40"/>
    </edge>
    <edge id=":junction_10" function="internal">
        <lane id=":junction_10_0" index="0" speed="13.49" length="5.01" shape="324.60,298.40 319.64,299.11"/>
    </edge>
    <edge id=":junction_11" function="internal">
        <lane id=":junction_11_0" index="0" speed="3.65" length="1.44" shape="324.60,298.40 323.40,299.20"/>
    </edge>
    <edge id=":junction_26" function="internal">
        <lane id=":junction_26_0" index="0" speed="13.49" length="37.24" shape="319.64,299.11 313.14,300.04 304.95,304.95 300.04,313.14 298.40,324.60"/>
    </edge>
    <edge id=":junction_27" function="internal">
        <lane id=":junction_27_0" index="0" speed="3.65" length="3.23" shape="323.40,299.20 323.00,300.00 323.40,300.80 324.60,301.60"/>
    </edge>
    <edge id=":junction_12" function="internal">
        <lane id=":junction_12_0" index="0" speed="10.81" length="26.77" shape="308.00,324.60 309.04,317.34 312.15,312.15 317.34,309.04 324.60,308.00"/>
    </edge>
    <edge id=":junction_13" function="internal">
        <lane id=":junction_13_0" index="0" speed="13.90" length="49.20" shape="308.00,324.60 308.00,275.40"/>
        <lane id=":junction_13_1" index="1" speed="13.90" length="49.20" shape="304.80,324.60 304.80,275.40"/>
        <lane id=":junction_13_2" index="2" speed="13.90" length="49.20" shape="301.60,324.60 301.60,275.40"/>
    </edge>
    <edge id=":junction_16" function="internal">
        <lane id=":junction_16_0" index="0" speed="13.49" length="5.01" shape="301.60,324.60 300.89,319.64"/>
    </edge>
    <edge id=":junction_17" function="internal">
        <lane id=":junction_17_0" index="0" speed="3.65" length="1.44" shape="301.60,324.60 300.80,323.40"/>
    </edge>
    <edge id=":junction_28" function="internal">
        <lane id=":junction_28_0" index="0" speed="13.49" length="37.24" shape="300.89,319.64 299.96,313.14 295.05,304.95 286.86,300.04 275.40,298.40"/>
    </edge>
    <edge id=":junction_29" function="internal">
        <lane id=":junction_29_0" index="0" speed="3.65" length="3.23" shape="300.80,323.40 300.00,323.00 299.20,323.40 298.40,324.60"/>
    </edge>
    <edge id=":junction_18" function="internal">
        <lane id=":junction_18_0" index="0" speed="10.81" length="26.77" shape="275.40,308.00 282.66,309.04 287.85,312.15 290.96,317.34 292.00,324.60"/>
    </edge>
    <edge id=":junction_19" function="internal">
        <lane id=":junction_19_0" index="0" speed="13.90" length="49.20" shape="275.40,308.00 324.60,308.00"/>
        <lane id=":junction_19_1" index="1" speed="13.90" length="49.20" shape="275.40,304.80 324.60,304.80"/>
        <lane id=":junction_19_2" index="2" speed="13.90" length="49.20" shape="275.40,301.60 324.60,301.60"/>
    </edge>
    <edge id=":junction_22" function="internal">
        <lane id=":junction_22_0" index="0" speed="13.49" length="5.01" shape="275.40,301.60 280.36,300.89"/>
    </edge>
    <edge id=":junction_23" function="internal">
        <lane id=":junction_23_0" index="0" speed="3.65" length="1.44" shape="275.40,301.60 276.60,300.80"/>
    </edge>
    <edge id=":junction_30" function="internal">
        <lane id=":junction_30_0" index="0" speed="13.49" length="37.24" shape="280.36,300.89 286.86,299.96 295.05,295.05 299.96,286.86 301.60,275.40"/>
    </edge>
    <edge id=":junction_31" function="internal">
        <lane id=":junction_31_0" index="0" speed="3.65" length="3.23" shape="276.60,300.80 277.00,300.00 276.60,299.20 275.40,298.40"/>
    </edge>
    <edge id=":north_0" function="internal">
        <lane id=":north_0_0" index="0" speed="3.65" length="4.67" shape="298.40,600.00 299.20,601.20 300.00,601.60 300.80,601.20 301.60,600.00"/>
    </edge>
    <edge id=":south_0" function="internal">
        <lane id=":south_0_0" index="0" speed="3.65" length="4.67" shape="301.60,-0.00 300.80,-1.20 300.00,-1.60 299.20,-1.20 298.40,-0.00"/>
    </edge>
    <edge id=":west_0" function="internal">
        <lane id=":west_0_0" index="0" speed="3.65" length="4.67" shape="0.00,298.40 -1.20,299.20 -1.60,300.00 -1.20,300.80 0.00,301.60"/>
    </edge>

    <edge id="east_in" from="east" to="junction" priority="-1">
        <lane id="east_in_0" index="0" speed="13.90" length="275.40" shape="600.00,292.00 324.60,292.00"/>
        <lane id="east_in_1" index="1" speed="13.90" length="275.40" shape="600.00,295.20 324.60,295.20"/>
        <lane id="east_in_2" index="2" speed="13.90" length="275.40" shape="600.00,298.40 324.60,298.40"/>
    </edge>
    <edge id="east_out" from="junction" to="east" priority="-1">
        <lane id="east_out_0" index="0" speed="13.90" length="275.40" shape="324.60,308.00 600.00,308.00"/>
        <lane id="east_out_1" index="1" speed="13.90" length="275.40" shape="324.60,304.80 600.00,304.80"/>
        <lane id="east_out_2" index="2" speed="13.90" length="275.40" shape="324.60,301.60 600.00,301.60"/>
    </edge>
    <edge id="north_in" from="north" to="junction" priority="-1">
        <lane id="north_in_0" index="0" speed="13.90" length="275.40" shape="308.00,600.00 308.00,324.60"/>
        <lane id="north_in_1" index="1" speed="13.90" length="275.40" shape="304.80,600.00 304.80,324.60"/>
        <lane id="north_in_2" index="2" speed="13.90" length="275.40" shape="301.60,600.00 301.60,324.60"/>
    </edge>
    <edge id="north_out" from="junction" to="north" priority="-1">
        <lane id="north_out_0" index="0" speed="13.90" length="275.40" shape="292.00,324.60 292.00,600.00"/>
        <lane id="north_out_1" index="1" speed="13.90" length="275.40" shape="295.20,324.60 295.20,600.00"/>
        <lane id="north_out_2" index="2" speed="13.90" length="275.40" shape="298.40,324.60 298.40,600.00"/>
    </edge>
    <edge id="south_in" from="south" to="junction" priority="-1">
        <lane id="south_in_0" index="0" speed="13.90" length="275.40" shape="292.00,-0.00 292.00,275.40"/>
        <lane id="south_in_1" index="1" speed="13.90" length="275.40" shape="295.20,-0.00 295.20,275.40"/>
        <lane id="south_in_2" index="2" speed="13.90" length="275.40" shape="298.40,-0.00 298.40,275.40"/>
    </edge>
    <edge id="south_out" from="junction" to="south" priority="-1">
        <lane id="south_out_0" index="0" speed="13.90" length="275.40" shape="308.00,275.40 308.00,-0.00"/>
        <lane id="south_out_1" index="1" speed="13.90" length="275.40" shape="304.80,275.40 304.80,-0.00"/>
        <lane id="south_out_2" index="2" speed="13.90" length="275.40" shape="301.60,275.40 301.60,-0.00"/>
    </edge>
    <edge id="west_in" from="west" to="junction" priority="-1">
        <lane id="west_in_0" index="0" speed="13.90" length="275.40" shape="0.00,308.00 275.40,308.00"/>
        <lane id="west_in_1" index="1" speed="13.90" length="275.40" shape="0.00,304.80 275.40,304.80"/>
        <lane id="west_in_2" index="2" speed="13.90" length="275.40" shape="0.00,301.60 275.40,301.60"/>
    </edge>
    <edge id="west_out" from="junction" to="west" priority="-1">
        <lane id="west_out_0" index="0" speed="13.90" length="275.40" shape="275.40,292.00 0.00,292.00"/>
        <lane id="west_out_1" index="1" speed="13.90" length="275.40" shape="275.40,295.20 0.00,295.20"/>
        <lane id="west_out_2" index="2" speed="13.90" length="275.40" shape="275.40,298.40 0.00,298.40"/>
    </edge>

    <tlLogic id="junction" type="static" programID="0" offset="0">
        <phase duration="41" state="GGGGggrrrrrrGGGGggrrrrrr"/>
        <phase duration="3"  state="yyyyyyrrrrrryyyyyyrrrrrr"/>
        <phase duration="1"  state="rrrrrrrrrrrrrrrrrrrrrrrr"/>
        <phase duration="41" state="rrrrrrGGGGggrrrrrrGGGGgg"/>
        <phase duration="3"  state="rrrrrryyyyyyrrrrrryyyyyy"/>
        <phase duration="1"  state="rrrrrrrrrrrrrrrrrrrrrrrr"/>
    </tlLogic>

    <junction id="east" type="priority" x="600.00" y="300.00" incLanes="east_out_0 east_out_1 east_out_2" intLanes=":east_0_0" shape="600.00,300.00 600.00,309.60 600.00,300.00">
        <request index="0" response="0" foes="0" cont="0"/>
    </junction>
    <junction id="junction" type="traffic_light" x="300.00" y="300.00" incLanes="south_in_0 south_in_1 south_in_2 east_in_0 east_in_1 east_in_2 north_in_0 north_in_1 north_in_2 west_in_0 west_in_1 west_in_2" intLanes=":junction_0_0 :junction_1_0 :junction_1_1 :junction_1_2 :junction_24_0 :junction_25_0 :junction_6_0 :junction_7_0 :junction_7_1 :junction_7_2 :junction_26_0 :junction_27_0 :junction_12_0 :junction_13_0 :junction_13_1 :junction_13_2 :junction_28_0 :junction_29_0 :junction_18_0 :junction_19_0 :junction_19_1 :junction_19_2 :junction_30_0 :junction_31_0" shape="290.40,275.40 309.60,275.40 310.02,279.98 311.27,283.73 313.35,286.65 316.27,288.73 320.02,289.98 324.60,290.40 324.60,309.60 320.02,310.02 316.27,311.27 313.35,313.35 311.27,316.27 310.02,320.02 309.60,324.60 290.40,324.60 289.98,320.02 288.73,316.27 286.65,313.35 283.73,311.27 279.98,310.02 275.40,309.60 275.40,290.40 279.98,289.98 283.73,288.73 286.65,286.65 288.73,283.73 289.98,279.98" radius="15.00">
        <request index="0"  response="000000000000000000000000" foes="000000000000001110000000" cont="0"/>
        <request index="1"  response="010000000000000000000000" foes="011111110000011110000000" cont="0"/>
        <request index="2"  response="010000000000000000000000" foes="011111110000011110000000" cont="0"/>
        <request index="3"  response="010000000000010000000000" foes="011111110000011110000000" cont="0"/>
        <request index="4"  response="010000001110010000000000" foes="011110001110111110000000" cont="1"/>
        <request index="5"  response="010000001110000000000000" foes="010000001110000000000000" cont="1"/>
        <request index="6"  response="000000001110000000000000" foes="000000001110000000000000" cont="0"/>
        <request index="7"  response="000000011110000000011111" foes="110000011110000000011111" cont="0"/>
        <request index="8"  response="000000011110000000011111" foes="110000011110000000011111" cont="0"/>
        <request index="9"  response="000000011110000000011111" foes="110000011110000000011111" cont="0"/>
        <request index="10" response="001110011110000000011110" foes="001110111110000000011110" cont="1"/>
        <request index="11" response="001110000000000000010000" foes="001110000000000000010000" cont="1"/>
        <request index="12" response="000000000000000000000000" foes="001110000000000000000000" cont="0"/>
        <request index="13" response="000000000000010000000000" foes="011110000000011111110000" cont="0"/>
        <request index="14" response="000000000000010000000000" foes="011110000000011111110000" cont="0"/>
        <request index="15" response="010000000000010000000000" foes="011110000000011111110000" cont="0"/>
        <request index="16" response="010000000000010000001110" foes="111110000000011110001110" cont="1"/>
        <request index="17" response="000000000000010000001110" foes="000000000000010000001110" cont="1"/>
        <request index="18" response="000000000000000000001110" foes="000000000000000000001110" cont="0"/>
        <request index="19" response="000000011111000000011110" foes="000000011111110000011110" cont="0"/>
        <request index="20" response="000000011111000000011110" foes="000000011111110000011110" cont="0"/>
        <request index="21" response="000000011111000000011110" foes="000000011111110000011110" cont="0"/>
        <request index="22" response="000000011110001110011110" foes="000000011110001110111110" cont="1"/>
        <request index="23" response="000000010000001110000000" foes="000000010000001110000000" cont="1"/>
    </junction>
    <junction id="north" type="priority" x="300.00" y="600.00" incLanes="north_out_0 north_out_1 north_out_2" intLanes=":north_0_0" shape="300.00,600.00 290.40,600.00 300.00,600.00">
        <request index="0" response="0" foes="0" cont="0"/>
    </junction>
    <junction id="south" type="priority" x="300.00" y="-0.00" incLanes="south_out_0 south_out_1 south_out_2" intLanes=":south_0_0" shape="300.00,-0.00 309.60,-0.00 300.00,-0.00">
        <request index="0" response="0" foes="0" cont="0"/>
    </junction>
    <junction id="west" type="priority" x="0.00" y="300.00" incLanes="west_out_0 west_out_1 west_out_2" intLanes=":west_0_0" shape="0.00,300.00 0.00,290.40 0.00,300.00">
        <request index="0" response="0" foes="0" cont="0"/>
    </junction>

    <junction id=":junction_24_0" type="internal" x="299.11" y="280.36" incLanes=":junction_4_0 north_in_0 north_in_1 north_in_2" intLanes=":junction_7_0 :junction_7_1 :junction_7_2 :junction_10_0 :junction_11_0 :junction_12_0 :junction_13_0 :junction_13_1 :junction_13_2 :junction_19_0 :junction_19_1 :junction_19_2 :junction_22_0"/>
    <junction id=":junction_25_0" type="internal" x="299.20" y="276.60" incLanes=":junction_5_0 east_in_0 north_in_0 north_in_1 north_in_2 west_in_2" intLanes=":junction_6_0 :junction_13_0 :junction_13_1 :junction_13_2 :junction_22_0"/>
    <junction id=":junction_26_0" type="internal" x="319.64" y="299.11" incLanes=":junction_10_0 west_in_0 west_in_1 west_in_2" intLanes=":junction_1_0 :junction_1_1 :junction_1_2 :junction_4_0 :junction_13_0 :junction_13_1 :junction_13_2 :junction_16_0 :junction_17_0 :junction_18_0 :junction_19_0 :junction_19_1 :junction_19_2"/>
    <junction id=":junction_27_0" type="internal" x="323.40" y="299.20" incLanes=":junction_11_0 north_in_0 south_in_2 west_in_0 west_in_1 west_in_2" intLanes=":junction_4_0 :junction_12_0 :junction_19_0 :junction_19_1 :junction_19_2"/>
    <junction id=":junction_28_0" type="internal" x="300.89" y="319.64" incLanes=":junction_16_0 south_in_0 south_in_1 south_in_2" intLanes=":junction_0_0 :junction_1_0 :junction_1_1 :junction_1_2 :junction_7_0 :junction_7_1 :junction_7_2 :junction_10_0 :junction_19_0 :junction_19_1 :junction_19_2 :junction_22_0 :junction_23_0"/>
    <junction id=":junction_29_0" type="internal" x="300.80" y="323.40" incLanes=":junction_17_0 east_in_2 south_in_0 south_in_1 south_in_2 west_in_0" intLanes=":junction_1_0 :junction_1_1 :junction_1_2 :junction_10_0 :junction_18_0"/>
    <junction id=":junction_30_0" type="internal" x="280.36" y="300.89" incLanes=":junction_22_0 east_in_0 east_in_1 east_in_2" intLanes=":junction_1_0 :junction_1_1 :junction_1_2 :junction_4_0 :junction_5_0 :junction_6_0 :junction_7_0 :junction_7_1 :junction_7_2 :junction_13_0 :junction_13_1 :junction_13_2 :junction_16_0"/>
    <junction id=":junction_31_0" type="internal" x="276.60" y="300.80" incLanes=":junction_23_0 east_in_0 east_in_1 east_in_2 north_in_2 south_in_0" intLanes=":junction_0_0 :junction_7_0 :junction_7_1 :junction_7_2 :junction_16_0"/>

    <connection from="east_in" to="south_out" fromLane="0" toLane="0" via=":junction_6_0" tl="junction" linkIndex="6" dir="l" state="o"/>
    <connection from="east_in" to="west_out" fromLane="0" toLane="0" via=":junction_7_0" tl="junction" linkIndex="7" dir="s" state="o"/>
    <connection from="east_in" to="west_out" fromLane="1" toLane="1" via=":junction_7_1" tl="junction" linkIndex="8" dir="s" state="o"/>
    <connection from="east_in" to="west_out" fromLane="2" toLane="2" via=":junction_7_2" tl="junction" linkIndex="9" dir="s" state="o"/>
    <connection from="east_in" to="north_out" fromLane="2" toLane="2" via=":junction_10_0" tl="junction" linkIndex="10" dir="r" state="o"/>
    <connection from="east_in" to="east_out" fromLane="2" toLane="2" via=":junction_11_0" tl="junction" linkIndex="11" dir="T" state="o"/>
    <connection from="east_out" to="east_in" fromLane="2" toLane="2" via=":east_0_0" dir="T" state="M"/>
    <connection from="north_in" to="east_out" fromLane="0" toLane="0" via=":junction_12_0" tl="junction" linkIndex="12" dir="l" state="O"/>
    <connection from="north_in" to="south_out" fromLane="0" toLane="0" via=":junction_13_0" tl="junction" linkIndex="13" dir="s" state="O"/>
    <connection from="north_in" to="south_out" fromLane="1" toLane="1" via=":junction_13_1" tl="junction" linkIndex="14" dir="s" state="O"/>
    <connection from="north_in" to="south_out" fromLane="2" toLane="2" via=":junction_13_2" tl="junction" linkIndex="15" dir="s" state="O"/>
    <connection from="north_in" to="west_out" fromLane="2" toLane="2" via=":junction_16_0" tl="junction" linkIndex="16" dir="r" state="o"/>
    <connection from="north_in" to="north_out" fromLane="2" toLane="2" via=":junction_17_0" tl="junction" linkIndex="17" dir="T" state="o"/>
    <connection from="north_out" to="north_in" fromLane="2" toLane="2" via=":north_0_0" dir="T" state="M"/>
    <connection from="south_in" to="west_out" fromLane="0" toLane="0" via=":junction_0_0" tl="junction" linkIndex="0" dir="l" state="O"/>
    <connection from="south_in" to="north_out" fromLane="0" toLane="0" via=":junction_1_0" tl="junction" linkIndex="1" dir="s" state="O"/>
    <connection from="south_in" to="north_out" fromLane="1" toLane="1" via=":junction_1_1" tl="junction" linkIndex="2" dir="s" state="O"/>
    <connection from="south_in" to="north_out" fromLane="2" toLane="2" via=":junction_1_2" tl="junction" linkIndex="3" dir="s" state="O"/>
    <connection from="south_in" to="east_out" fromLane="2" toLane="2" via=":junction_4_0" tl="junction" linkIndex="4" dir="r" state="o"/>
    <connection from="south_in" to="south_out" fromLane="2" toLane="2" via=":junction_5_0" tl="junction" linkIndex="5" dir="T" state="o"/>
    <connection from="south_out" to="south_in" fromLane="2" toLane="2" via=":south_0_0" dir="T" state="M"/>
    <connection from="west_in" to="north_out" fromLane="0" toLane="0" via=":junction_18_0" tl="junction" linkIndex="18" dir="l" state="o"/>
    <connection from="west_in" to="east_out" fromLane="0" toLane="0" via=":junction_19_0" tl="junction" linkIndex="19" dir="s" state="o"/>
    <connection from="west_in" to="east_out" fromLane="1" toLane="1" via=":junction_19_1" tl="junction" linkIndex="20" dir="s" state="o"/>
    <connection from="west_in" to="east_out" fromLane="2" toLane="2" via=":junction_19_2" tl="junction" linkIndex="21" dir="s" state="o"/>
    <connection from="west_in" to="south_out" fromLane="2" toLane="2" via=":junction_22_0" tl="junction" linkIndex="22" dir="r" state="o"/>
    <connection from="west_in" to="west_out" fromLane="2" toLane="2" via=":junction_23_0" tl="junction" linkIndex="23" dir="T" state="o"/>
    <connection from="west_out" to="west_in" fromLane="2" toLane="2" via=":west_0_0" dir="T" state="M"/>

    <connection from=":east_0" to="east_in" fromLane="0" toLane="2" dir="T" state="M"/>
    <connection from=":junction_0" to="west_out" fromLane="0" toLane="0" dir="l" state="M"/>
    <connection from=":junction_1" to="north_out" fromLane="0" toLane="0" dir="s" state="M"/>
    <connection from=":junction_1" to="north_out" fromLane="1" toLane="1" dir="s" state="M"/>
    <connection from=":junction_1" to="north_out" fromLane="2" toLane="2" dir="s" state="M"/>
    <connection from=":junction_4" to="east_out" fromLane="0" toLane="2" via=":junction_24_0" dir="r" state="m"/>
    <connection from=":junction_24" to="east_out" fromLane="0" toLane="2" dir="r" state="M"/>
    <connection from=":junction_5" to="south_out" fromLane="0" toLane="2" via=":junction_25_0" dir="T" state="m"/>
    <connection from=":junction_25" to="south_out" fromLane="0" toLane="2" dir="T" state="M"/>
    <connection from=":junction_6" to="south_out" fromLane="0" toLane="0" dir="l" state="M"/>
    <connection from=":junction_7" to="west_out" fromLane="0" toLane="0" dir="s" state="M"/>
    <connection from=":junction_7" to="west_out" fromLane="1" toLane="1" dir="s" state="M"/>
    <connection from=":junction_7" to="west_out" fromLane="2" toLane="2" dir="s" state="M"/>
    <connection from=":junction_10" to="north_out" fromLane="0" toLane="2" via=":junction_26_0" dir="r" state="m"/>
    <connection from=":junction_26" to="north_out" fromLane="0" toLane="2" dir="r" state="M"/>
    <connection from=":junction_11" to="east_out" fromLane="0" toLane="2" via=":junction_27_0" dir="T" state="m"/>
    <connection from=":junction_27" to="east_out" fromLane="0" toLane="2" dir="T" state="M"/>
    <connection from=":junction_12" to="east_out" fromLane="0" toLane="0" dir="l" state="M"/>
    <connection from=":junction_13" to="south_out" fromLane="0" toLane="0" dir="s" state="M"/>
    <connection from=":junction_13" to="south_out" fromLane="1" toLane="1" dir="s" state="M"/>
    <connection from=":junction_13" to="south_out" fromLane="2" toLane="2" dir="s" state="M"/>
    <connection from=":junction_16" to="west_out" fromLane="0" toLane="2" via=":junction_28_0" dir="r" state="m"/>
    <connection from=":junction_28" to="west_out" fromLane="0" toLane="2" dir="r" state="M"/>
    <connection from=":junction_17" to="north_out" fromLane="0" toLane="2" via=":junction_29_0" dir="T" state="m"/>
    <connection from=":junction_29" to="north_out" fromLane="0" toLane="2" dir="T" state="M"/>
    <connection from=":junction_18" to="north_out" fromLane="0" toLane="0" dir="l" state="M"/>
    <connection from=":junction_19" to="east_out" fromLane="0" toLane="0" dir="s" state="M"/>
    <connection from=":junction_19" to="east_out" fromLane="1" toLane="1" dir="s" state="M"/>
    <connection from=":junction_19" to="east_out" fromLane="2" toLane="2" dir="s" state="M"/>
    <connection from=":junction_22" to="south_out" fromLane="0" toLane="2" via=":junction_30_0" dir="r" state="m"/>
    <connection from=":junction_30" to="south_out" fromLane="0" toLane="2" dir="r" state="M"/>
    <connection from=":junction_23" to="west_out" fromLane="0" toLane="2" via=":junction_31_0" dir="T" state="m"/>
    <connection from=":junction_31" to="west_out" fromLane="0" toLane="2" dir="T" state="M"/>
    <connection from=":north_0" to="north_in" fromLane="0" toLane="2" dir="T" state="M"/>
    <connection from=":south_0" to="south_in" fromLane="0" toLane="2" dir="T" state="M"/>
    <connection from=":west_0" to="west_in" fromLane="0" toLane="2" dir="T" state="M"/>

</net>
